Version 4.1
SHEET 1 880 680
WIRE 304 0 224 0
WIRE 464 0 400 0
WIRE 528 0 464 0
WIRE 592 0 528 0
WIRE 464 80 464 0
WIRE 528 80 528 0
WIRE 592 80 592 0
WIRE 208 96 96 96
WIRE 320 112 320 48
WIRE 320 112 272 112
WIRE 208 128 176 128
WIRE 96 144 96 96
WIRE 176 176 176 128
WIRE 464 176 464 144
WIRE 464 176 176 176
WIRE 528 176 528 160
WIRE 528 176 464 176
WIRE 528 192 528 176
FLAG -32 224 0
FLAG 96 224 0
FLAG -32 144 VDD
FLAG 240 80 VDD
FLAG 240 144 0
FLAG 592 160 0
FLAG 224 0 VDD
FLAG 528 272 0
SYMBOL voltage -32 128 R0
WINDOW 123 0 0 Left 0
WINDOW 39 24 110 Left 2
SYMATTR InstName V1
SYMATTR Value 5.45
SYMATTR SpiceLine Rser=1
SYMBOL voltage 96 128 R0
WINDOW 3 24 96 Invisible 2
WINDOW 123 0 0 Left 0
WINDOW 39 0 0 Left 0
SYMATTR InstName V2
SYMATTR Value SINE(1.25 1.25 100)
SYMBOL OpAmps\\UniversalOpAmp2 240 112 R0
SYMATTR InstName U1
SYMATTR Value2 Avol=1Meg GBW=70k Slew=30k
SYMATTR SpiceLine Ilimit=5m Rail=0 Vos=0
SYMBOL pmos 400 48 M270
SYMATTR InstName M1
SYMATTR Value FDC638P
SYMBOL res 576 64 R0
SYMATTR InstName R1
SYMATTR Value 33
SYMBOL res 512 64 R0
SYMATTR InstName R2
SYMATTR Value 10k
SYMBOL res 512 176 R0
SYMATTR InstName R3
SYMATTR Value 10k
SYMBOL cap 448 80 R0
SYMATTR InstName C2
SYMATTR Value 2.2n
TEXT -8 264 Left 2 !.tran 0 20m 0 10n startup uic
